140

 Mg       5.8140001       7.9010000     -30.7900009
  C       3.1489999       9.1269999     -32.5530014
  C       7.5609999       7.5609999     -33.7669983
  C       8.7340002       7.3639998     -29.0790005
  C       4.2839999       8.8529997     -27.8040009
  N       5.4140000       8.3290005     -32.8100014
  C       4.1760001       8.7240000     -33.3359985
  C       4.2340002       8.8850002     -34.8120003
  C       5.5079999       8.1099997     -35.1930008
  C       6.2309999       7.9740000     -33.8569984
  C       5.0689998       6.7779999     -35.7369995
  C       4.4140000      10.3640003     -34.9980011
  C       5.7649999      10.8490000     -34.4449997
  C       5.9159999      12.3190002     -34.9700012
  O       5.1420002      12.7100000     -35.7550011
  O       6.8490000      13.1000004     -34.3650017
  N       7.8230000       7.6020002     -31.2989998
  C       8.3249998       7.4020000     -32.5989990
  C       9.7089996       6.9439998     -32.5040016
  C      10.0629997       6.8979998     -31.1980000
  C       8.8400002       7.3230000     -30.4209995
  C      10.6190004       6.5200000     -33.6129990
  C      11.4040003       6.4759998     -30.6940002
  O      12.2299995       5.8600001     -31.4239998
  C      11.9799995       6.8119998     -29.3169994
  N       6.4140000       8.1280003     -28.7910004
  C       7.6220002       7.7150002     -28.2929993
  C       7.6069999       7.5500002     -26.8010006
  C       6.3540001       8.3769999     -26.4309998
  C       5.5799999       8.4110003     -27.7000008
  C       7.2950001       6.0539999     -26.6000004
  C       6.1170001       9.1149998     -25.3479996
  C       6.7800002       8.8459997     -23.9510002
  N       4.1510000       8.8929996     -30.2520008
  C       3.5590000       9.1009998     -29.0030003
  C       2.1910000       9.5030003     -29.1459999
  C       1.9870000       9.5480003     -30.5400009
  C       3.2010000       9.1809998     -31.1590004
  C       1.2060000       9.6929998     -28.0610008
  C       1.0060000       9.7189999     -31.5669994
  O      -0.2320000       9.8450003     -31.4720001
  C       1.7309999       9.5710001     -32.9360008
  C       0.9540000       8.4670000     -33.6370010
  O       0.4900000       8.5330000     -34.6469994
  O       0.8700000       7.3109999     -32.9860001
  C       0.0000000       6.3299999     -33.5960007
  C       7.2240000      14.4160004     -34.9710007
  C       8.0299997      14.0640001     -36.2220001
  C       9.2290001      14.4560003     -36.5480003
  C      10.0000000      15.4239998     -35.6430016
  C       9.8450003      13.8470001     -37.8520012
  C      10.2100000      14.8109999     -39.0060005
  C      10.4449997      13.9080000     -40.2669983
  C      11.7279997      14.4010000     -40.9370003
  C      11.6560001      15.9329996     -41.0540009
  C      11.8929996      13.7690001     -42.3260002
  C      13.2950001      14.1049995     -42.8580017
  C      13.4779997      13.4680004     -44.2439995
  C      14.9219999      13.6780005     -44.7340012
  C      15.2740002      15.1780005     -44.7010002
  C      15.0690002      13.1289997     -46.1679993
  C      16.5489998      13.1499996     -46.5999985
  C      16.6879997      12.6029997     -48.0359993
  C      18.1760006      12.5489998     -48.4420013
  C      18.3059998      12.1300001     -49.9189987
  C      18.9319992      11.5500002     -47.5460014
  H       8.0629997       7.3369999     -34.7080002
  H       9.6320000       7.0879998     -28.5270004
  H       3.7539999       9.0330000     -26.8689995
  H       3.3460000       8.4689999     -35.2879982
  H       6.0999999       8.6599998     -35.9239998
  H       5.9450002       6.1939998     -36.0200005
  H       4.5060000       6.2410002     -34.9739990
  H       4.4369998       6.9330001     -36.6119995
  H       3.6370001      10.9340000     -34.4879990
  H       4.3790002      10.6470003     -36.0499992
  H       6.5029998      10.1619997     -34.8580017
  H       5.6680002      10.7819996     -33.3610001
  H      10.5489998       7.2340002     -34.4339981
  H      11.6459999       6.4860001     -33.2480011
  H      10.3260002       5.5310001     -33.9659996
  H      12.3430004       7.8400002     -29.3150005
  H      11.2030001       6.6999998     -28.5610008
  H      12.8050003       6.1360002     -29.0930004
  H       8.5179996       7.9359999     -26.3439999
  H       7.2620001       5.8290000     -25.5340004
  H       6.3299999       5.8200002     -27.0499992
  H       8.0719995       5.4540000     -27.0730000
  H       5.0460000       9.0349998     -25.1590004
  H       6.4250002      10.1289997     -25.6030006
  H       6.4260001       9.5839996     -23.2320004
  H       6.5120001       7.8470001     -23.6070004
  H       7.8639998       8.9200001     -24.0419998
  H       1.0960000      10.7570000     -27.8519993
  H       0.2440000       9.2819996     -28.3670006
  H       1.5510000       9.1809998     -27.1630001
  H       1.7530000      10.5139999     -33.4830017
  H      -0.0030000       5.4219999     -32.9930000
  H      -1.0130000       6.7290001     -33.6559982
  H       0.3590000       6.0990000     -34.5989990
  H       7.8109999      14.9250002     -34.2060013
  H       6.2770000      14.9090004     -35.1899986
  H       7.4250002      14.4250002     -37.0540009
  H       8.1309996      12.9790001     -36.1910019
  H      10.8319998      15.8570004     -36.1990013
  H       9.3330002      16.2189999     -35.3089981
  H      10.3839998      14.8850002     -34.7770004
  H       9.1160002      13.1459999     -38.2589989
  H      10.7700005      13.3439999     -37.5699997
  H      11.1129999      15.3330002     -38.6879997
  H       9.3570004      15.4799995     -39.1209984
  H       9.5769997      14.0319996     -40.9140015
  H      10.5419998      12.8820000     -39.9109993
  H      12.5749998      14.1040001     -40.3180008
  H      12.5629997      16.3050003     -41.5299988
  H      10.7910004      16.2119999     -41.6549988
  H      11.5629997      16.3700008     -40.0600014
  H      11.1309996      14.1780005     -42.9900017
  H      11.7740002      12.6890001     -42.2360001
  H      14.0450001      13.7110004     -42.1720009
  H      13.4010000      15.1870003     -42.9350014
  H      12.7930002      13.9250002     -44.9580002
  H      13.2740002      12.3979998     -44.1930008
  H      15.6149998      13.1359997     -44.0900002
  H      16.2970009      15.3190002     -45.0489998
  H      14.5909996      15.7259998     -45.3499985
  H      15.1829996      15.5509996     -43.6809998
  H      14.4940004      13.7370005     -46.8670006
  H      14.7060003      12.1020002     -46.2190018
  H      17.1429996      12.5310001     -45.9269981
  H      16.9319992      14.1700001     -46.5719986
  H      16.1560001      13.2469997     -48.7360001
  H      16.2709999      11.5979996     -48.0970001
  H      18.6350002      13.5290003     -48.3120003
  H      19.3600006      12.0950003     -50.1959991
  H      17.8610001      11.1450005     -50.0579987
  H      17.7889996      12.8540001     -50.5489998
  H      19.9810009      11.5190001     -47.8400002
  H      18.8560009      11.8649998     -46.5050011
  H      18.4939995      10.5579996     -47.6570015
